[TITLE]


[JUNCTIONS]
;ID              	Elev        	Demand      	Pattern         
 I-AV-1          	892.4       	0           	                	;
 O-AV-2          	875         	0           	                	;
 J-1             	902.2       	0           	                	;
 J-10            	884         	7.13194     	2               	;
 J-100           	813.2       	0.4213      	11              	;
 J-101           	806.2       	0.18056     	11              	;
 J-102           	870.7       	2.06481     	2               	;
 J-103           	863.1       	0           	                	;
 J-104           	854.9       	0           	                	;
 J-105           	857.2       	0.06019     	11              	;
 J-106           	825.9       	0.15509     	2               	;
 J-107           	873.4       	0           	                	;
 J-108           	843.5       	0.22917     	11              	;
 J-109           	854.2       	0.90509     	11              	;
 J-11            	783.8       	0           	                	;
 J-110           	909.9       	1.52083     	11              	;
 J-111           	916.9       	0           	                	;
 J-112           	922.6       	2.41898     	2               	;
 J-113           	896         	0           	                	;
 J-114           	897         	0.32639     	11              	;
 J-115           	892.8       	0.26852     	11              	;
 J-116           	841         	1.75231     	11              	;
 J-117           	907         	0           	                	;
 J-118           	835.5       	1.52083     	11              	;
 J-119           	862.2       	0           	                	;
 J-12            	797.2       	2.22454     	1               	;
 J-120           	832.7       	0.86111     	11              	;
 J-121           	835.6       	0           	                	;
 J-122           	903.6       	0           	                	;
 J-123           	848.2       	0           	                	;
 J-124           	853.4       	0           	                	;
 J-125           	869.5       	1.96296     	11              	;
 J-126           	902.6       	2.74537     	11              	;
 J-127           	805.1       	0.01852     	11              	;
 J-128           	804.2       	0           	                	;
 J-129           	835.2       	0.19907     	11              	;
 J-13            	872.7       	0           	                	;
 J-130           	837.6       	0           	                	;
 J-131           	837.6       	0.15046     	1               	;
 J-132           	842.7       	0.53704     	11              	;
 J-133           	877.1       	1.74306     	11              	;
 J-134           	896.3       	0.60417     	11              	;
 J-135           	832         	0.75        	11              	;
 J-136           	843         	0.78935     	11              	;
 J-137           	884.2       	0           	                	;
 J-138           	897.6       	0.92824     	11              	;
 J-139           	860         	0           	                	;
 J-14            	875.9       	1.25231     	1               	;
 J-140           	863.6       	0           	                	;
 J-141           	844         	0           	                	;
 J-142           	829.3       	0           	                	;
 J-143           	888.4       	0.01852     	1               	;
 J-144           	942.2       	0           	                	;
 J-145           	941         	0           	                	;
 J-146           	862.4       	0.53472     	11              	;
 J-147           	836.2       	0           	                	;
 J-148           	836.2       	1.14815     	11              	;
 J-149           	842.4       	0.56481     	11              	;
 J-15            	912.2       	0.375       	11              	;
 J-150           	845.2       	0.57639     	11              	;
 J-151           	835.5       	0           	                	;
 J-152           	790.9       	0.8125      	11              	;
 J-153           	872         	2.11574     	11              	;
 J-154           	854.8       	0.5625      	11              	;
 J-155           	858.4       	0.1713      	11              	;
 J-156           	851.7       	0.53935     	11              	;
 J-157           	849.5       	1.125       	11              	;
 J-158           	803.7       	0           	                	;
 J-159           	869.5       	0           	                	;
 J-16            	914.3       	0.64583     	11              	;
 J-160           	834.8       	0           	                	;
 J-161           	834.8       	0           	                	;
 J-162           	841.4       	0.03241     	11              	;
 J-163           	809.1       	0           	                	;
 J-164           	850.4       	0.28472     	2               	;
 J-165           	844.9       	0           	                	;
 J-166           	824         	0.39352     	11              	;
 J-167           	821.1       	0           	                	;
 J-168           	790         	0.04398     	2               	;
 J-169           	797.8       	0           	                	;
 J-17            	887         	2.53704     	2               	;
 J-170           	829.9       	0.33565     	11              	;
 J-171           	830.9       	0.30093     	2               	;
 J-172           	863.2       	0           	                	;
 J-173           	860.6       	0.75231     	11              	;
 J-174           	808.2       	0.28241     	11              	;
 J-175           	806.1       	0.96528     	11              	;
 J-176           	829.9       	0.21296     	11              	;
 J-177           	828.2       	1.1875      	11              	;
 J-178           	878.1       	0           	                	;
 J-179           	905.6       	2.38889     	11              	;
 J-18            	888.3       	1.45139     	2               	;
 J-180           	835.7       	0           	                	;
 J-181           	855.1       	0.58796     	11              	;
 J-182           	851.7       	0           	                	;
 J-183           	812.3       	0.1875      	11              	;
 J-184           	816.2       	0.2338      	11              	;
 J-185           	848.5       	2.42361     	11              	;
 J-186           	805.8       	0           	                	;
 J-187           	795.9       	0           	                	;
 J-188           	840         	0           	                	;
 J-189           	838.9       	0           	                	;
 J-19            	860.3       	0.34491     	1               	;
 J-190           	886.7       	0.32407     	11              	;
 J-191           	879.5       	1.38426     	11              	;
 J-192           	902.6       	1.22685     	1               	;
 J-193           	898.1       	0           	                	;
 J-194           	887.5       	1.46759     	11              	;
 J-195           	809.9       	2.08333     	2               	;
 J-196           	855.6       	1.0625      	11              	;
 J-197           	855.6       	3.16204     	11              	;
 J-198           	824.6       	2.14352     	11              	;
 J-199           	891.8       	1.46296     	11              	;
 J-2             	889.8       	9.7963      	2               	;
 J-20            	853.1       	0.39583     	11              	;
 J-200           	834.5       	0           	                	;
 J-201           	845.2       	0           	                	;
 J-202           	809         	0           	                	;
 J-203           	800         	0.59491     	11              	;
 J-204           	791.3       	0           	                	;
 J-205           	891.4       	0.29398     	11              	;
 J-206           	894.9       	0.22222     	11              	;
 J-207           	850.1       	0.37732     	1               	;
 J-208           	844.7       	1.20602     	11              	;
 J-209           	889.4       	0.94213     	11              	;
 J-21            	838         	0           	                	;
 J-210           	867.6       	1.75        	11              	;
 J-211           	819.8       	0.7338      	11              	;
 J-212           	812.1       	1.36111     	11              	;
 J-213           	817.7       	5.75463     	2               	;
 J-214           	812.1       	0           	                	;
 J-215           	855.2       	0.0625      	11              	;
 J-216           	803.6       	0.22917     	11              	;
 J-217           	849.7       	0.86574     	11              	;
 J-218           	858.5       	0           	                	;
 J-219           	833.1       	0.76852     	11              	;
 J-22            	864.8       	1.20602     	11              	;
 J-220           	864.4       	2.01852     	11              	;
 J-221           	891.5       	0           	                	;
 J-222           	887.1       	0.2         	11              	;
 J-223           	854.2       	0.54167     	11              	;
 J-224           	815.5       	0.51157     	11              	;
 J-225           	816.9       	0.10417     	11              	;
 J-226           	833.2       	0           	                	;
 J-227           	832         	0           	                	;
 J-228           	851.5       	0           	                	;
 J-229           	856.7       	0.58333     	11              	;
 J-23            	822.7       	1.50231     	11              	;
 J-230           	859.3       	0           	                	;
 J-231           	812.3       	0.45833     	11              	;
 J-232           	896.7       	2.22454     	11              	;
 J-233           	834.7       	0           	                	;
 J-234           	852.5       	1.62269     	11              	;
 J-235           	862         	0.3125      	11              	;
 J-236           	825.2       	0           	                	;
 J-237           	891         	0.17361     	11              	;
 J-238           	892.3       	0.19213     	11              	;
 J-239           	788.1       	0.91667     	11              	;
 J-24            	815.4       	0.35185     	2               	;
 J-240           	790         	1.2963      	11              	;
 J-241           	899.9       	0.80324     	11              	;
 J-242           	887         	0           	                	;
 J-243           	808.3       	0.17593     	11              	;
 J-244           	791         	0.28935     	11              	;
 J-245           	912.7       	0           	                	;
 J-246           	875.6       	0.80093     	11              	;
 J-247           	808.3       	0           	                	;
 J-248           	869.8       	0.90972     	11              	;
 J-249           	860.6       	2.00926     	11              	;
 J-25            	871.3       	2.41667     	11              	;
 J-250           	798.6       	0           	                	;
 J-251           	862.1       	0           	                	;
 J-252           	851.5       	5.3         	1               	;
 J-253           	859.4       	2.16898     	11              	;
 J-254           	915         	0.30093     	2               	;
 J-255           	858.2       	0.125       	11              	;
 J-256           	856.3       	0           	                	;
 J-257           	845.2       	1.81713     	1               	;
 J-258           	831.3       	0.78935     	1               	;
 J-259           	817         	10.8356     	1               	;
 J-26            	857.4       	1.71759     	11              	;
 J-260           	849.2       	0           	                	;
 J-261           	841.7       	0           	                	;
 J-262           	834.8       	1.18981     	11              	;
 J-263           	840.7       	0.20139     	11              	;
 J-264           	836.7       	0           	                	;
 J-265           	821.2       	0.46296     	11              	;
 J-266           	813.4       	0           	                	;
 J-267           	803.7       	1.2037      	11              	;
 J-268           	881.2       	0.50694     	11              	;
 J-269           	777.2       	0           	                	;
 J-27            	847.8       	0.70139     	1               	;
 J-270           	915         	1.41435     	11              	;
 J-271           	913.8       	1.72454     	11              	;
 J-272           	878.6       	0           	                	;
 J-273           	865.8       	0.37963     	11              	;
 J-274           	843         	2.22917     	1               	;
 J-275           	850         	0.75        	11              	;
 J-276           	845.7       	0           	                	;
 J-277           	824.4       	0.41667     	11              	;
 J-278           	819.9       	0           	                	;
 J-279           	846.2       	0.60417     	11              	;
 J-28            	838.4       	1.20602     	11              	;
 J-280           	813.6       	0.93056     	11              	;
 J-281           	837.6       	1.15278     	1               	;
 J-282           	805.8       	0.25694     	2               	;
 J-283           	842.3       	2.31944     	2               	;
 J-284           	838.9       	3.41204     	1               	;
 J-285           	842         	0.22917     	11              	;
 J-286           	857.9       	2.17593     	11              	;
 J-287           	870.6       	0.85417     	11              	;
 J-288           	813.4       	0           	                	;
 J-289           	849.6       	1.84722     	11              	;
 J-29            	872.4       	0           	                	;
 J-290           	859.7       	0           	                	;
 J-291           	852.4       	0           	                	;
 J-292           	841.7       	0.05556     	11              	;
 J-293           	848.4       	0.4375      	11              	;
 J-294           	860.7       	1.91667     	11              	;
 J-295           	869.4       	0           	                	;
 J-296           	909.8       	0.2662      	11              	;
 J-297           	838.2       	0.34259     	1               	;
 J-298           	839.5       	0.12963     	11              	;
 J-299           	834         	0.44907     	11              	;
 J-3             	867         	1.31481     	11              	;
 J-30            	880.7       	0           	                	;
 J-300           	858.7       	1.28472     	11              	;
 J-301           	856         	2.20139     	11              	;
 J-302           	853.8       	0.21991     	2               	;
 J-303           	877         	0.18287     	11              	;
 J-304           	886.5       	1.74537     	11              	;
 J-305           	863.7       	0           	                	;
 J-306           	792.6       	0.7037      	11              	;
 J-307           	908.8       	0.7037      	11              	;
 J-308           	892.6       	0.26852     	11              	;
 J-309           	818         	1.86574     	11              	;
 J-31            	793.2       	1           	11              	;
 J-310           	853.1       	0.34954     	1               	;
 J-311           	860.1       	0.48843     	11              	;
 J-312           	840         	1.9838      	11              	;
 J-313           	836.9       	0.05787     	11              	;
 J-314           	830.9       	0.34259     	1               	;
 J-315           	830         	0           	                	;
 J-316           	840.2       	0           	                	;
 J-317           	869.8       	1.90046     	1               	;
 J-318           	820.4       	0           	                	;
 J-319           	820.3       	0           	                	;
 J-32            	799.5       	0.25926     	11              	;
 J-320           	892.8       	0           	                	;
 J-321           	854.1       	0.19213     	2               	;
 J-322           	891.3       	0           	                	;
 J-323           	889.8       	0.19676     	1               	;
 J-324           	844.5       	1.17824     	11              	;
 J-325           	868.2       	0.96991     	11              	;
 J-326           	892         	0           	                	;
 J-327           	828         	1.03935     	11              	;
 J-328           	819.6       	0.12269     	2               	;
 J-329           	803.9       	0           	                	;
 J-33            	878.7       	0.01852     	11              	;
 J-330           	877.6       	3.47685     	11              	;
 J-331           	856         	0           	                	;
 J-332           	834.7       	23.9282     	2               	;
 J-333           	853.9       	5.20139     	2               	;
 J-334           	894.2       	0.56944     	11              	;
 J-335           	815.8       	0.84028     	11              	;
 J-336           	818.1       	1.22222     	11              	;
 J-337           	886.7       	3.76852     	11              	;
 J-338           	917.5       	0           	                	;
 J-339           	876.7       	0.52083     	11              	;
 J-34            	892.4       	0           	                	;
 J-340           	859.5       	2.3125      	11              	;
 J-341           	878.3       	0.74537     	11              	;
 J-342           	899.3       	0.94907     	2               	;
 J-343           	827.5       	0.8287      	11              	;
 J-344           	842.8       	0.84722     	11              	;
 J-345           	846.7       	0.37037     	11              	;
 J-346           	848.1       	0.70833     	11              	;
 J-347           	834.8       	0.55556     	11              	;
 J-348           	836.1       	0           	                	;
 J-349           	854.5       	0           	                	;
 J-35            	900.2       	1.32407     	2               	;
 J-350           	853.3       	0           	                	;
 J-351           	879.9       	0           	                	;
 J-352           	854.5       	0.23843     	11              	;
 J-353           	862.4       	3.26852     	1               	;
 J-354           	839.5       	0           	                	;
 J-355           	831.3       	2.39352     	11              	;
 J-356           	838.7       	1.06944     	11              	;
 J-357           	845.1       	2.75926     	11              	;
 J-358           	797.9       	0           	                	;
 J-359           	849.6       	0           	                	;
 J-36            	940.3       	0.0463      	2               	;
 J-360           	843.8       	0.46296     	11              	;
 J-361           	838.5       	1.40278     	1               	;
 J-362           	838.9       	0.57176     	11              	;
 J-363           	861.1       	0           	                	;
 J-364           	872         	0           	                	;
 J-365           	865.9       	0           	                	;
 J-366           	868.6       	1.47454     	2               	;
 J-367           	868         	1.51852     	11              	;
 J-368           	847.5       	2.67361     	11              	;
 J-369           	902.4       	0           	                	;
 J-37            	872.7       	0.16667     	1               	;
 J-370           	872.5       	0.11806     	11              	;
 J-371           	886.7       	0.12269     	11              	;
 J-372           	894.3       	0           	                	;
 J-373           	884         	0           	                	;
 J-374           	862         	3.43519     	11              	;
 J-375           	848.7       	0           	                	;
 J-376           	828.2       	0.60648     	11              	;
 J-377           	869.5       	0           	                	;
 J-378           	881.6       	1.125       	2               	;
 J-379           	880.2       	1.12731     	2               	;
 J-38            	870.5       	0           	                	;
 J-380           	903.3       	7.09491     	1               	;
 J-381           	902.6       	0           	                	;
 J-382           	827.1       	0.56713     	11              	;
 J-383           	886.2       	0.20602     	11              	;
 J-384           	899.9       	1.12963     	11              	;
 J-385           	846.6       	0.90972     	11              	;
 J-386           	795.6       	1.7963      	11              	;
 J-387           	863.6       	0.82639     	11              	;
 J-388           	859.1       	0.37963     	11              	;
 J-389           	863.7       	0           	                	;
 J-39            	894.9       	2.41204     	11              	;
 J-390           	869.9       	1.40509     	2               	;
 J-391           	865.9       	3.53473     	11              	;
 J-392           	880.7       	2           	11              	;
 J-393           	817         	1.60185     	1               	;
 J-394           	807         	1.05324     	11              	;
 J-395           	803.4       	1.14352     	11              	;
 J-396           	853         	0           	                	;
 J-397           	804.8       	0           	                	;
 J-398           	837.7       	1.15509     	2               	;
 J-399           	941.7       	0           	                	;
 J-4             	846.5       	0           	                	;
 J-40            	896.8       	0           	                	;
 J-400           	862.1       	1.57639     	11              	;
 J-401           	872         	0.58796     	11              	;
 J-402           	887.4       	0           	                	;
 J-403           	859.9       	0.13889     	11              	;
 J-404           	871.2       	0           	                	;
 J-405           	902.6       	0.36574     	1               	;
 J-406           	834.4       	1.40741     	11              	;
 J-407           	836.1       	0.35417     	11              	;
 J-408           	886.7       	2           	11              	;
 J-409           	868.3       	0.31713     	11              	;
 J-41            	872         	4.56713     	11              	;
 J-410           	864.3       	0.28009     	11              	;
 J-411           	873.6       	1.5         	11              	;
 J-412           	868.1       	0.28935     	11              	;
 J-413           	858.6       	0           	                	;
 J-414           	834.4       	2.57639     	1               	;
 J-415           	840.4       	0.56019     	11              	;
 J-416           	852.2       	0.6713      	11              	;
 J-417           	852.9       	0           	                	;
 J-418           	864.7       	0           	                	;
 J-419           	859.9       	3.20833     	1               	;
 J-42            	879.0002    	1.59954     	11              	;
 J-420           	880         	0           	                	;
 J-421           	862.4       	1.31019     	1               	;
 J-422           	926.2       	0           	                	;
 J-423           	869.6       	0.61343     	11              	;
 J-424           	898         	3.09954     	1               	;
 J-425           	876.2       	0.57176     	11              	;
 J-426           	923.3       	0           	                	;
 J-427           	940.8       	0.08565     	2               	;
 J-428           	808.8       	0           	                	;
 J-429           	871.2       	0.37037     	11              	;
 J-43            	902.3       	0.46296     	11              	;
 J-430           	844.5       	1.0463      	1               	;
 J-431           	866.1       	0.14352     	11              	;
 J-432           	872.6       	0.56944     	11              	;
 J-433           	816.2       	0.06019     	11              	;
 J-434           	836.8       	0.65972     	11              	;
 J-435           	864.7       	0.9375      	11              	;
 J-436           	860.7       	0           	                	;
 J-437           	844.5       	0.02083     	11              	;
 J-438           	855.7       	0           	                	;
 J-439           	826.1       	0.51389     	1               	;
 J-44            	828.7       	1.4838      	1               	;
 J-440           	822.2       	0           	                	;
 J-441           	789.8       	2.19213     	2               	;
 J-442           	785.4       	0.29861     	11              	;
 J-443           	936.1       	0.82639     	11              	;
 J-444           	910.7       	2.4537      	2               	;
 J-445           	809.5       	0.57407     	11              	;
 J-446           	834.9       	0.46991     	11              	;
 J-447           	818.7       	0.15972     	11              	;
 J-448           	834         	0           	                	;
 J-449           	838.7       	1.54861     	11              	;
 J-45            	805.3       	0.66898     	11              	;
 J-450           	790.7       	0           	                	;
 J-451           	806.8       	0           	                	;
 J-452           	811.3       	0           	                	;
 J-453           	869.5       	12.2616     	11              	;
 J-454           	799.3       	0.29167     	2               	;
 J-455           	859.6       	0           	                	;
 J-456           	894.2       	2.2662      	1               	;
 J-457           	891.5       	0           	                	;
 J-458           	911.4       	0           	                	;
 J-459           	920.6       	0.75231     	11              	;
 J-46            	814.1       	1.53241     	2               	;
 J-460           	877.3       	0           	                	;
 J-461           	927.4       	0.03241     	2               	;
 J-462           	875.5       	0           	                	;
 J-463           	860.8       	0           	                	;
 J-464           	879         	1.72222     	11              	;
 J-465           	861.5       	22.9        	1               	;
 J-466           	857.9       	0.19907     	11              	;
 J-467           	849.7       	0.56944     	11              	;
 J-468           	836.8       	0           	                	;
 J-469           	852.1       	1.77546     	11              	;
 J-47            	810.3       	3.17824     	11              	;
 J-470           	843.4       	0.26157     	11              	;
 J-471           	847.5       	0.57407     	11              	;
 J-472           	921         	6.42824     	11              	;
 J-473           	872.5       	0           	                	;
 J-474           	851.4       	2.99074     	1               	;
 J-475           	889.7       	0.65046     	11              	;
 J-476           	879.5       	0.4213      	1               	;
 J-477           	935.9       	0.30093     	11              	;
 J-478           	916.5       	1.11806     	11              	;
 J-479           	848         	0           	                	;
 J-48            	872.1       	0           	                	;
 J-480           	834.1       	0.35185     	11              	;
 J-481           	834.5       	0.71065     	11              	;
 J-482           	794         	0.58796     	1               	;
 J-483           	861.3       	200         	3               	;
 J-484           	863.3       	0           	                	;
 J-485           	936.2       	0           	                	;
 J-486           	791.3       	0           	                	;
 J-487           	834.6       	1.09491     	11              	;
 J-488           	831.7       	4.68982     	11              	;
 J-489           	808.6       	0           	                	;
 J-49            	886.9       	0.27778     	1               	;
 J-490           	951.9       	0.05324     	2               	;
 J-491           	893         	0.46065     	2               	;
 J-492           	811.3       	0           	                	;
 J-493           	837.3       	1.38426     	1               	;
 J-494           	868.7       	0           	                	;
 J-495           	852.8       	0.15509     	1               	;
 J-496           	860.4       	0           	                	;
 J-497           	860.3       	4.8         	1               	;
 J-498           	871.3       	3.35648     	11              	;
 J-499           	868.3       	0.34722     	11              	;
 J-5             	849         	0           	                	;
 J-50            	864.3       	0.11343     	11              	;
 J-500           	816.5       	1.94444     	11              	;
 J-501           	838.8       	0           	                	;
 J-502           	881.4       	1.03241     	1               	;
 J-503           	855.4       	2.80093     	1               	;
 J-504           	878.1       	0           	                	;
 J-505           	869.6       	0           	                	;
 J-506           	863.8       	22.1        	2               	;
 J-507           	877.6       	0.32176     	11              	;
 J-508           	873.3       	0.0463      	11              	;
 J-509           	855.5       	1.4375      	11              	;
 J-51            	883.7       	0.15972     	2               	;
 J-510           	876.4       	0           	                	;
 J-511           	834         	0           	                	;
 J-512           	850.2       	0.62963     	11              	;
 J-513           	854.8       	0           	                	;
 J-514           	856.5       	0           	                	;
 J-515           	841         	0           	                	;
 J-516           	888.7       	0           	                	;
 J-517           	856         	0           	                	;
 J-518           	870.5       	0.82639     	1               	;
 J-519           	852.8       	0           	                	;
 J-52            	842         	0.05787     	1               	;
 J-520           	822.6       	0.74769     	11              	;
 J-521           	865.7       	0           	                	;
 J-522           	868.7       	0           	                	;
 J-523           	850.4       	1.02315     	2               	;