[TITLE]


[JUNCTIONS]
;ID              	Elev        	Demand      	Pattern         
 I-AV-1          	772         	0           	                	;
 I-AV-10         	808         	0           	                	;
 I-AV-11         	854         	0.4         	11              	;
 I-AV-12         	769         	0           	                	;
 I-AV-13         	849         	0.1         	11              	;
 I-AV-14         	834         	0.1         	11              	;
 I-AV-15         	807         	0.2         	11              	;
 I-AV-16         	722         	0.7         	11              	;
 I-AV-17         	698         	0.2         	11              	;
 I-AV-18         	774         	0           	                	;
 I-AV-19         	774         	0.2         	11              	;
 I-AV-2          	798         	0.1         	11              	;
 I-AV-20         	843         	0.4         	11              	;
 I-AV-21         	843         	0.3         	11              	;
 I-AV-22         	843         	0           	                	;
 I-AV-23         	772         	0           	                	;
 I-AV-24         	738         	0.1         	11              	;
 I-AV-25         	839         	0.1         	11              	;
 I-AV-26         	806         	0.3         	11              	;
 I-AV-27         	832         	0.6         	11              	;
 I-AV-28         	849.6       	0           	                	;
 I-AV-29         	814         	0.1         	11              	;
 I-AV-3          	696.1       	0.2         	11              	;
 I-AV-30         	782         	0.2         	11              	;
 I-AV-31         	830         	0.1         	11              	;
 I-AV-32         	765         	0.1         	11              	;
 I-AV-33         	792         	0.2         	11              	;
 I-AV-34         	774         	0           	                	;
 I-AV-35         	806         	0.1         	11              	;
 I-AV-36         	726         	0.2         	11              	;
 I-AV-37         	774.8       	0.7         	11              	;
 I-AV-38         	782.2       	0.6         	11              	;
 I-AV-39         	772         	0.1         	11              	;
 I-AV-4          	661         	0.1         	11              	;
 I-AV-40         	736         	0.2         	11              	;
 I-AV-41         	736         	0           	                	;
 I-AV-42         	802         	0.2         	11              	;
 I-AV-43         	812         	0.1         	11              	;
 I-AV-5          	827         	0.1         	11              	;
 I-AV-6          	839         	0.1         	11              	;
 I-AV-7          	823         	0.2         	11              	;
 I-AV-8          	809         	0.4         	11              	;
 I-AV-9          	808         	0           	                	;
 J-1             	842         	0.3         	11              	;
 J-10            	709         	0.7         	11              	;
 J-100           	848         	0.1         	11              	;
 J-101           	808         	0.3         	11              	;
 J-102           	678         	0.3         	11              	;
 J-103           	786         	0           	                	;
 J-104           	755         	0.5         	11              	;
 J-105           	765.2       	0.7         	11              	;
 J-106           	716.7       	1.4         	11              	;
 J-107           	811         	0.4         	11              	;
 J-108           	716.2       	0.1         	11              	;
 J-109           	556.3       	0.3         	11              	;
 J-11            	795         	0.6         	11              	;
 J-110           	803         	0.2         	11              	;
 J-111           	756.1       	0.9         	11              	;
 J-112           	585         	0.3         	11              	;
 J-113           	840         	0.3         	11              	;
 J-114           	785         	0.3         	11              	;
 J-115           	763.2       	0.6         	11              	;
 J-116           	850         	0.4         	11              	;
 J-117           	781.3       	0.3         	11              	;
 J-118           	794         	0.2         	11              	;
 J-119           	782         	0.1         	11              	;
 J-12            	700.9       	0.4         	11              	;
 J-13            	761         	0.4         	11              	;
 J-14            	782         	0.4         	11              	;
 J-15            	757         	0.3         	11              	;
 J-16            	834         	0.6         	11              	;
 J-17            	740         	0.2         	11              	;
 J-18            	764         	0.1         	11              	;
 J-19            	786         	0.6         	11              	;
 J-2             	824         	1.1         	11              	;
 J-20            	769         	0.2         	11              	;
 J-21            	734         	0.1         	11              	;
 J-22            	830         	0.1         	11              	;
 J-23            	829         	0.2         	11              	;
 J-24            	756         	0.1         	11              	;
 J-25            	826         	1.3         	11              	;
 J-26            	657.9       	0.4         	11              	;
 J-28            	847         	0.2         	11              	;
 J-29            	799         	0.4         	11              	;
 J-3             	834         	0           	                	;
 J-30            	843         	1.4         	11              	;
 J-31            	837         	0.9         	11              	;
 J-32            	772         	1.1         	11              	;
 J-33            	765         	0.1         	11              	;
 J-34            	777         	2.9         	11              	;
 J-35            	744.5       	1.5         	11              	;
 J-36            	777         	0.3         	11              	;
 J-37            	807         	1.7         	11              	;
 J-38            	734.5       	0.2         	11              	;
 J-39            	804.3       	1.8         	11              	;
 J-4             	835         	0.2         	11              	;
 J-40            	792.8       	0.3         	11              	;
 J-41            	841         	0           	                	;
 J-42            	787         	0.2         	11              	;
 J-43            	787         	0.1         	11              	;
 J-44            	781         	0.1         	11              	;
 J-45            	802         	0.7         	11              	;
 J-46            	722         	0.7         	11              	;
 J-47            	796         	0.3         	11              	;
 J-48            	802         	0.1         	11              	;
 J-49            	833         	0.6         	11              	;
 J-5             	813         	2           	11              	;
 J-50            	850.4       	0.5         	11              	;
 J-51            	806         	0.5         	11              	;
 J-52            	706         	0.5         	11              	;
 J-53            	810         	1.1         	11              	;
 J-54            	630         	0.7         	11              	;
 J-56            	769         	0           	                	;
 J-57            	715.8       	0.6         	11              	;
 J-58            	806.1       	1.5         	11              	;
 J-59            	741.7       	0.7         	11              	;
 J-6             	765         	0.6         	11              	;
 J-60            	769         	0.2         	11              	;
 J-61            	704         	0.1         	11              	;
 J-62            	775         	0.1         	11              	;
 J-63            	761         	0           	                	;
 J-64            	790         	0.1         	11              	;
 J-65            	792         	0.2         	11              	;
 J-66            	816         	0           	                	;
 J-67            	797         	0.1         	11              	;
 J-68            	832         	0.1         	11              	;
 J-69            	834         	0.1         	11              	;
 J-7             	800         	1.6         	11              	;
 J-71            	721         	1.1         	11              	;
 J-72            	772         	0.1         	11              	;
 J-73            	772         	0.2         	11              	;
 J-74            	736.9       	0.8         	11              	;
 J-75            	842         	0.3         	11              	;
 J-76            	798         	0           	                	;
 J-77            	805         	0.3         	11              	;
 J-78            	795         	0.5         	11              	;
 J-79            	733         	0.2         	11              	;
 J-8             	799         	0.3         	11              	;
 J-80            	793         	0.1         	11              	;
 J-81            	806         	0           	                	;
 J-82            	789         	0           	                	;
 J-83            	787         	0.2         	11              	;
 J-84            	792         	0.1         	11              	;
 J-85            	774.9       	0.5         	11              	;
 J-86            	799         	0.1         	11              	;
 J-87            	840         	0.9         	11              	;
 J-88            	824.5       	0.1         	11              	;
 J-89            	836         	0.6         	11              	;
 J-9             	770         	1.2         	11              	;
 J-90            	828         	0.1         	11              	;
 J-91            	848.6       	0.5         	11              	;
 J-92            	805.4       	0.2         	11              	;
 J-93            	720.2       	0.6         	11              	;
 J-94            	693.8       	0.1         	11              	;
 J-95            	802         	1           	11              	;
 J-96            	841         	0.1         	11              	;
 J-97            	764         	0.3         	11              	;
 J-98            	795         	0.1         	11              	;
 J-99            	855         	0.8         	11              	;
 O-AV-1          	772         	0.3         	11              	;
 O-AV-10         	808         	0.3         	11              	;
 O-AV-11         	854         	0.1         	11              	;
 O-AV-12         	769         	0           	                	;
 O-AV-13         	849         	0.3         	11              	;
 O-AV-14         	834         	0.1         	11              	;
 O-AV-15         	807         	0.9         	11              	;
 O-AV-16         	722         	0.2         	11              	;
 O-AV-17         	698         	0.2         	11              	;
 O-AV-18         	774         	0           	                	;
 O-AV-19         	774         	0           	                	;
 O-AV-2          	798         	0.1         	11              	;
 O-AV-20         	843         	0           	                	;
 O-AV-21         	843         	0           	                	;
 O-AV-22         	843         	0.1         	11              	;
 O-AV-23         	772         	0           	                	;
 O-AV-24         	738         	0.5         	11              	;
 O-AV-25         	839         	0           	                	;
 O-AV-26         	806         	0           	                	;
 O-AV-27         	832         	0.1         	11              	;
 O-AV-28         	849.6       	0.1         	11              	;
 O-AV-29         	814         	0.2         	11              	;
 O-AV-3          	696.1       	0.1         	11              	;
 O-AV-30         	782         	0           	                	;
 O-AV-31         	830         	0           	                	;
 O-AV-32         	765         	0           	                	;
 O-AV-33         	792         	0.4         	11              	;
 O-AV-34         	774         	0           	                	;
 O-AV-35         	806         	0           	                	;
 O-AV-36         	726         	0.6         	11              	;
 O-AV-37         	774.8       	0.6         	11              	;
 O-AV-38         	782.2       	0.3         	11              	;
 O-AV-39         	772         	0           	                	;
 O-AV-4          	661         	0           	                	;
 O-AV-40         	736         	0           	                	;
 O-AV-41         	736         	0           	                	;
 O-AV-42         	802         	0           	                	;
 O-AV-43         	812         	0.3         	11              	;
 O-AV-5          	827         	0.1         	11              	;
 O-AV-6          	839         	0           	                	;
 O-AV-7          	823         	0           	                	;
 O-AV-8          	809         	0           	                	;
 O-AV-9          	808         	0           	                	;
 O-V-~@AV-1      	772         	0           	                	;
 O-V-~@AV-10     	808         	0           	                	;
 O-V-~@AV-11     	854         	0           	                	;
 O-V-~@AV-12     	769         	0           	                	;
 O-V-~@AV-13     	849         	0           	                	;
 O-V-~@AV-14     	834         	0           	                	;
 O-V-~@AV-15     	807         	0           	                	;
 O-V-~@AV-16     	722         	0           	                	;
 O-V-~@AV-17     	698         	0           	                	;
 O-V-~@AV-18     	774         	0           	                	;
 O-V-~@AV-19     	774         	0           	                	;
 O-V-~@AV-2      	798         	0           	                	;
 O-V-~@AV-20     	843         	0           	                	;
 O-V-~@AV-21     	843         	0           	                	;
 O-V-~@AV-22     	843         	0           	                	;
 O-V-~@AV-23     	772         	0           	                	;
 O-V-~@AV-24     	738         	0           	                	;
 O-V-~@AV-25     	839         	0           	                	;
 O-V-~@AV-26     	806         	0           	                	;
 O-V-~@AV-27     	832         	0           	                	;
 O-V-~@AV-28     	849.6       	0           	                	;
 O-V-~@AV-29     	814         	0           	                	;
 O-V-~@AV-3      	696.1       	0           	                	;
 O-V-~@AV-30     	782         	0           	                	;
 O-V-~@AV-31     	830         	0           	                	;
 O-V-~@AV-32     	765         	0           	                	;
 O-V-~@AV-33     	792         	0           	                	;
 O-V-~@AV-34     	774         	0           	                	;
 O-V-~@AV-35     	806         	0           	                	;
 O-V-~@AV-36     	726         	0           	                	;
 O-V-~@AV-37     	774.8       	0           	                	;
 O-V-~@AV-38     	782.2       	0           	                	;
 O-V-~@AV-39     	772         	0           	                	;
 O-V-~@AV-4      	661         	0           	                	;
 O-V-~@AV-40     	736         	0           	                	;
 O-V-~@AV-41     	736         	0           	                	;
 O-V-~@AV-42     	802         	0           	                	;
 O-V-~@AV-43     	812         	0           	                	;
 O-V-~@AV-5      	827         	0           	                	;
 O-V-~@AV-6      	839         	0           	                	;
 O-V-~@AV-7      	823         	0           	                	;
 O-V-~@AV-8      	809         	0           	                	;
 O-V-~@AV-9      	808         	0           	                	;
 I-V-~@AV-1      	772         	0           	                	;
 I-V-~@AV-10     	808         	0           	                	;
 I-V-~@AV-11     	854         	0           	                	;
 I-V-~@AV-12     	769         	0           	                	;
 I-V-~@AV-13     	849         	0           	                	;
 I-V-~@AV-14     	834         	0           	                	;
 I-V-~@AV-15     	807         	0           	                	;
 I-V-~@AV-16     	722         	0           	                	;
 I-V-~@AV-17     	698         	0           	                	;
 I-V-~@AV-18     	774         	0           	                	;
 I-V-~@AV-19     	774         	0           	                	;
 I-V-~@AV-2      	798         	0           	                	;
 I-V-~@AV-20     	843         	0           	                	;
 I-V-~@AV-21     	843         	0           	                	;
 I-V-~@AV-22     	843         	0           	                	;
 I-V-~@AV-23     	772         	0           	                	;
 I-V-~@AV-24     	738         	0           	                	;
 I-V-~@AV-25     	839         	0           	                	;
 I-V-~@AV-26     	806         	0           	                	;
 I-V-~@AV-27     	832         	0           	                	;
 I-V-~@AV-28     	849.6       	0           	                	;
 I-V-~@AV-29     	814         	0           	                	;
 I-V-~@AV-3      	696.1       	0           	                	;
 I-V-~@AV-30     	782         	0           	                	;
 I-V-~@AV-31     	830         	0           	                	;
 I-V-~@AV-32     	765         	0           	                	;
 I-V-~@AV-33     	792         	0           	                	;
 I-V-~@AV-34     	774         	0           	                	;
 I-V-~@AV-35     	806         	0           	                	;
 I-V-~@AV-36     	726         	0           	                	;
 I-V-~@AV-37     	774.8       	0           	                	;
 I-V-~@AV-38     	782.2       	0           	                	;
 I-V-~@AV-39     	772         	0           	                	;
 I-V-~@AV-4      	661         	0           	                	;
 I-V-~@AV-40     	736         	0           	                	;
 I-V-~@AV-41     	736         	0           	                	;
 I-V-~@AV-42     	802         	0           	                	;
 I-V-~@AV-43     	812         	0           	                	;
 I-V-~@AV-5      	827         	0           	                	;
 I-V-~@AV-6      	839         	0           	                	;
 I-V-~@AV-7      	823         	0           	                	;
 I-V-~@AV-8      	809         	0           	                	;
 I-V-~@AV-9      	808         	0           	                	;

[RESERVOIRS]
;ID              	Head        	Pattern         
 HWY_87          	860         	                	;
 SPRING_ST       	860         	                	;

[TANKS]
;ID              	Elevation   	InitLevel   	MinLevel    	MaxLevel    	Diameter    	MinVol      	VolCurve        	Overflow

[PIPES]
;ID              	Node1           	Node2           	Length      	Diameter    	Roughness   	MinorLoss   	Status
 D_V-~@AV-1      	O-AV-1          	O-V-~@AV-1      	0.1         	40.79755    	150         	0           	Open  	;
 D_V-~@AV-10     	O-AV-10         	O-V-~@AV-10     	0.1         	40.79755    	150         	0           	Open  	;
 D_V-~@AV-11     	O-AV-11         	O-V-~@AV-11     	0.1         	40.79755    	150         	0           	Open  	;
 D_V-~@AV-12     	O-AV-12         	O-V-~@AV-12     	0.1         	40.79755    	150         	0           	Open  	;
 D_V-~@AV-13     	O-AV-13         	O-V-~@AV-13     	0.1         	40.79755    	150         	0           	Open  	;
 D_V-~@AV-14     	O-AV-14         	O-V-~@AV-14     	0.1         	40.79755    	150         	0           	Open  	;
 D_V-~@AV-15     	O-AV-15         	O-V-~@AV-15     	0.1         	40.79755    	150         	0           	Open  	;
 D_V-~@AV-16     	O-AV-16         	O-V-~@AV-16     	0.1         	40.79755    	150         	0           	Open  	;
 D_V-~@AV-17     	O-AV-17         	O-V-~@AV-17     	0.1         	40.79755    	150         	0           	Open  	;
 D_V-~@AV-18     	O-AV-18         	O-V-~@AV-18     	0.1         	40.79755    	150         	0           	Open  	;
 D_V-~@AV-19     	O-AV-19         	O-V-~@AV-19     	0.1         	40.79755    	150         	0           	Open  	;
 D_V-~@AV-2      	O-AV-2          	O-V-~@AV-2      	0.1         	40.79755    	150         	0           	Open  	;
 D_V-~@AV-20     	O-AV-20         	O-V-~@AV-20     	0.1         	40.79755    	150         	0           	Open  	;
 D_V-~@AV-21     	O-AV-21         	O-V-~@AV-21     	0.1         	40.79755    	150         	0           	Open  	;
 D_V-~@AV-22     	O-AV-22         	O-V-~@AV-22     	0.1         	40.79755    	150         	0           	Open  	;
 D_V-~@AV-23     	O-AV-23         	O-V-~@AV-23     	0.1         	40.79755    	150         	0           	Open  	;
 D_V-~@AV-24     	O-AV-24         	O-V-~@AV-24     	0.1         	40.79755    	150         	0           	Open  	;
 D_V-~@AV-25     	O-AV-25         	O-V-~@AV-25     	0.1         	40.79755    	150         	0           	Open  	;
 D_V-~@AV-26     	O-AV-26         	O-V-~@AV-26     	0.1         	40.79755    	150         	0           	Open  	;
 D_V-~@AV-27     	O-AV-27         	O-V-~@AV-27     	0.1         	40.79755    	150         	0           	Open  	;
 D_V-~@AV-28     	O-AV-28         	O-V-~@AV-28     	0.1         	40.79755    	150         	0           	Open  	;
 D_V-~@AV-29     	O-AV-29         	O-V-~@AV-29     	0.1         	40.79755    	150         	0           	Open  	;
 D_V-~@AV-3      	O-AV-3          	O-V-~@AV-3      	0.1         	40.79755    	150         	0           	Open  	;
 D_V-~@AV-30     	O-AV-30         	O-V-~@AV-30     	0.1         	40.79755    	150         	0           	Open  	;
 D_V-~@AV-31     	O-AV-31         	O-V-~@AV-31     	0.1         	40.79755    	150         	0           	Open  	;
 D_V-~@AV-32     	O-AV-32         	O-V-~@AV-32     	0.1         	40.79755    	150         	0           	Open  	;
 D_V-~@AV-33     	O-AV-33         	O-V-~@AV-33     	0.1         	40.79755    	150         	0           	Open  	;
 D_V-~@AV-34     	O-AV-34         	O-V-~@AV-34     	0.1         	40.79755    	150         	0           	Open  	;
 D_V-~@AV-35     	O-AV-35         	O-V-~@AV-35     	0.1         	40.79755    	150         	0           	Open  	;
 D_V-~@AV-36     	O-AV-36         	O-V-~@AV-36     	0.1         	40.79755    	150         	0           	Open  	;
 D_V-~@AV-37     	O-AV-37         	O-V-~@AV-37     	0.1         	40.79755    	150         	0           	Open  	;
 D_V-~@AV-38     	O-AV-38         	O-V-~@AV-38     	0.1         	40.79755    	150         	0           	Open  	;
 D_V-~@AV-39     	O-AV-39         	O-V-~@AV-39     	0.1         	40.79755    	150         	0           	Open  	;
 D_V-~@AV-4      	O-AV-4          	O-V-~@AV-4      	0.1         	40.79755    	150         	0           	Open  	;
 D_V-~@AV-40     	O-AV-40         	O-V-~@AV-40     	0.1         	40.79755    	150         	0           	Open  	;
 D_V-~@AV-41     	O-AV-41         	O-V-~@AV-41     	0.1         	40.79755    	150         	0           	Open  	;
 D_V-~@AV-42     	O-AV-42         	O-V-~@AV-42     	0.1         	40.79755    	150         	0           	Open  	;
 D_V-~@AV-43     	O-AV-43         	O-V-~@AV-43     	0.1         	40.79755    	150         	0           	Open  	;
 D_V-~@AV-5      	O-AV-5          	O-V-~@AV-5      	0.1         	40.79755    	150         	0           	Open  	;
 D_V-~@AV-6      	O-AV-6          	O-V-~@AV-6      	0.1         	40.79755    	150         	0           	Open  	;
 D_V-~@AV-7      	O-AV-7          	O-V-~@AV-7      	0.1         	40.79755    	150         	0           	Open  	;
 D_V-~@AV-8      	O-AV-8          	O-V-~@AV-8      	0.1         	40.79755    	150         	0           	Open  	;
 D_V-~@AV-9      	O-AV-9          	O-V-~@AV-9      	0.1         	40.79755    	150         	0           	Open  	;
 P-1             	J-1             	J-2             	2066.84     	3           	100.0998    	0           	Open  	;
 P-10            	J-17            	J-18            	890.83      	4           	100.0998    	0           	Open  	;
 P-100           	J-7             	J-107           	2408.638    	3           	100.0998    	0           	Open  	;
 P-101           	J-79            	J-108           	503.859     	3           	100.0998    	0           	Open  	;
 P-102           	J-26            	J-109           	1986.55     	3           	100.0998    	0           	Open  	;
 P-103           	J-7             	J-110           	1439.52     	3           	100.0998    	0           	Open  	;
 P-104           	J-21            	J-24            	664.859     	3           	100.0998    	0           	Open  	;
 P-105           	J-78            	I-AV-15         	1074.848    	3           	100.0998    	0           	Open  	;
 P-106           	J-80            	J-42            	318.89      	3           	100.0998    	0           	Open  	;
 P-107           	J-106           	J-112           	1710.64     	3           	100.0998    	0           	Open  	;
 P-108           	J-113           	I-AV-29         	477.489     	3           	100.0998    	0           	Open  	;
 P-109           	J-37            	I-AV-37         	4933.438    	3           	100.0998    	0           	Open  	;
 P-11            	J-19            	J-20            	2135.739    	4           	100.0998    	0           	Open  	;
 P-110           	J-116           	J-99            	2400.468    	3           	100.0998    	0           	Open  	;
 P-111           	J-107           	J-53            	135.419     	3           	100.0998    	0           	Open  	;
 P-112           	J-8             	J-117           	1956.848    	3           	100.0998    	0           	Open  	;
 P-113           	J-4             	J-118           	1405.239    	3           	100.0998    	0           	Open  	;
 P-114           	J-67            	O-AV-2          	313.01      	1           	100.0998    	0           	Open  	;
 P-115           	J-53            	J-39            	2880.52     	3           	100.0998    	0           	Open  	;
 P-116           	J-87            	J-49            	641.2       	4           	100.0998    	0           	Open  	;
 P-117           	J-89            	J-91            	2549.968    	4           	100.0998    	0           	Open  	;
 P-118           	J-91            	I-AV-28         	29.239      	4           	100.0998    	0           	Open  	;
 P-119           	J-113           	J-41            	5.13        	3           	100.0998    	0           	Open  	;
 P-12            	J-21            	J-17            	123.75      	4           	100.0998    	0           	Open  	;
 P-120           	J-114           	J-103           	2.009       	3           	100.0998    	0           	Open  	;
 P-121           	O-AV-1          	J-25            	2943.76     	4           	100.0998    	0           	Open  	;
 P-122           	I-AV-2          	J-119           	238.8       	1           	100.0998    	0           	Open  	;
 P-123           	O-AV-3          	I-AV-4          	1719.328    	6           	100.0998    	0           	Open  	;
 P-124           	O-AV-4          	J-74            	567.218     	6           	100.0998    	0           	Open  	;
 P-125           	O-AV-5          	I-AV-6          	1084.3      	6           	100.0998    	0           	Open  	;
 P-126           	O-AV-6          	J-75            	147.589     	6           	100.0998    	0           	Open  	;
 P-127           	O-AV-7          	J-2             	67.98       	6           	100.0998    	0           	Open  	;
 P-128           	O-AV-8          	I-AV-9          	8.689       	3           	100.0998    	0           	Open  	;
 P-129           	O-AV-9          	I-AV-10         	0.289       	3           	100.0998    	0           	Open  	;
 P-13            	J-22            	J-23            	151.69      	4           	100.0998    	0           	Open  	;
 P-130           	O-AV-10         	J-102           	2024.989    	3           	100.0998    	0           	Open  	;
 P-131           	O-AV-11         	I-AV-13         	506.38      	3           	100.0998    	0           	Open  	;
 P-132           	I-AV-12         	I-AV-23         	4.019       	4           	100.0998    	0           	Open  	;
 P-133           	O-AV-13         	J-99            	2207.648    	3           	100.0998    	0           	Open  	;
 P-134           	O-AV-14         	J-100           	889.39      	3           	100.0998    	0           	Open  	;
 P-135           	O-AV-15         	J-111           	5740.298    	3           	100.0998    	0           	Open  	;
 P-136           	O-AV-16         	I-AV-17         	2631.388    	6           	100.0998    	0           	Open  	;
 P-137           	O-AV-17         	I-AV-19         	3037.408    	6           	100.0998    	0           	Open  	;
 P-138           	O-AV-18         	J-32            	58.298      	6           	100.0998    	0           	Open  	;
 P-139           	O-AV-19         	I-AV-18         	9.409       	6           	100.0998    	0           	Open  	;
 P-14            	J-24            	O-AV-12         	231.529     	4           	100.0998    	0           	Open  	;
 P-140           	O-AV-20         	J-16            	134.309     	4           	100.0998    	0           	Open  	;
 P-141           	O-AV-21         	I-AV-22         	39.208      	4           	100.0998    	0           	Open  	;
 P-142           	O-AV-22         	J-96            	810.739     	4           	100.0998    	0           	Open  	;
 P-143           	O-AV-23         	I-AV-1          	2.319       	4           	100.0998    	0           	Open  	;
 P-144           	O-AV-24         	J-71            	7038.58     	6           	100.0998    	0           	Open  	;
 P-145           	O-AV-25         	J-30            	171.059     	4           	100.0998    	0           	Open  	;
 P-146           	O-AV-26         	J-51            	19.54       	3           	100.0998    	0           	Open  	;
 P-147           	O-AV-27         	J-31            	512.32      	4           	100.0998    	0           	Open  	;
 P-148           	O-AV-28         	J-88            	548.359     	4           	100.0998    	0           	Open  	;
 P-149           	O-AV-29         	I-AV-30         	1540.26     	3           	100.0998    	0           	Open  	;
 P-15            	SPRING_ST       	J-4             	66.44       	6           	100.0998    	0           	Open  	;